[submodule "extern/googletest"]
	path = extern/googletest
	url = https://github.com/google/googletest.git
[submodule "extern/compute/SCALE-Sim"]
	path = extern/compute/SCALE-Sim
	url = https://github.com/scalesim-project/scale-sim-v2.git
[submodule "extern/network_backend/ns3-interface"]
    path = extern/network_backend/ns3
    #url = https://github.com/astra-sim/astra-network-ns3.git
    url = https://github.com/astra-sim/deprecated-astra-network-ns3